Version 4
SHEET 1 880 680
WIRE 128 96 80 96
WIRE 240 96 208 96
WIRE 256 96 240 96
WIRE 416 96 336 96
WIRE 480 96 416 96
WIRE 416 112 416 96
WIRE 416 112 400 112
WIRE 80 128 80 96
WIRE 240 128 240 96
WIRE 256 128 240 128
WIRE 400 128 400 112
WIRE 560 128 560 96
WIRE 400 224 400 192
WIRE 416 224 400 224
WIRE 560 224 560 192
WIRE 576 224 560 224
WIRE 80 240 80 208
WIRE 416 240 416 224
WIRE 576 240 576 224
WIRE 256 256 256 192
FLAG 80 240 0
FLAG 256 256 0
FLAG 416 240 0
FLAG 576 240 0
SYMBOL voltage 80 112 R0
WINDOW 123 24 124 Left 2
WINDOW 39 0 0 Left 0
SYMATTR InstName V1
SYMATTR Value ""
SYMATTR Value2 AC 1
SYMBOL cap 240 128 R0
SYMATTR InstName C1
SYMATTR Value {capacitor}
SYMBOL cap 384 128 R0
SYMATTR InstName C2
SYMATTR Value {capacitor}
SYMBOL cap 544 128 R0
WINDOW 0 28 14 Left 2
SYMATTR InstName C3
SYMATTR Value {capacitor}
SYMBOL res 224 80 R90
WINDOW 0 0 56 VBottom 2
WINDOW 3 32 56 VTop 2
SYMATTR InstName R1
SYMATTR Value {resistor}
SYMBOL res 352 80 R90
WINDOW 0 0 56 VBottom 2
WINDOW 3 32 56 VTop 2
SYMATTR InstName R2
SYMATTR Value {resistor}
SYMBOL res 576 80 R90
WINDOW 0 0 56 VBottom 2
WINDOW 3 32 56 VTop 2
SYMATTR InstName R3
SYMATTR Value {resistor}
TEXT 272 320 Left 2 !.param resistor 1k
TEXT 272 296 Left 2 !.param capacitor 100n
TEXT 272 272 Left 2 !.ac oct 10 10 100k
